[General]
network = src.STPRingNetwork
sim-time-limit = 200s

# ── Cấu hình kịch bản sự cố ──────────────────────────────────
[Config KichBan1_DutCap]
description = "Đứt 1 đường cáp giữa SW1 và SW2"
*.scenarioManager.script = xmldoc("scenario.xml")
[Config KichBan2_CapQuangChapChon]
description = "Cáp nối giữa SW1 và SW2 bị chập chờn"
*.scenarioManager.script = xmldoc("scenario2.xml")
# ── Bật STP ──────────────────────────────────────────────────
*.sw*.hasStp = true
*.sw*.spanningTreeProtocol = "Stp"    # hoặc "Rstp"
*.sw*.llc.typename = "Ieee8022Llc"

# ── Bridge Priority ───────────────────────────────────────────
*.sw1.stp.bridgePriority = 4096
*.sw2.stp.bridgePriority = 32768
*.sw3.stp.bridgePriority = 32768
*.sw4.stp.bridgePriority = 32768

# ── Timers ────────────────────────────────────────────────────
*.sw*.stp.helloTime    = 2s
*.sw*.stp.forwardDelay = 15s
*.sw*.stp.maxAge       = 20s

# ── Hiển thị màu cổng trong Qtenv ────────────────────────────
*.sw*.stp.visualize = true

# ── Cấu hình Ping từ host1 sang host2 ────────────────────────
*.host1.numApps = 1
*.host1.app[0].typename = "PingApp"
*.host1.app[0].destAddr = "host2"

# QUAN TRỌNG: Phải đợi STP hội tụ xong mới ping (do delay là 30s)
*.host1.app[0].startTime = 35s
# ===================================================================
# KỊCH BẢN THÊM VÀO CỦA HÀ PHƯƠNG
# ===================================================================
[Config Kich_Ban_Sap_Root]
description = "Kich ban 2: Sap nguon Switch sw4"
*.scenarioManager.script = xmldoc("scenario_sapproot.xml")
*.host1.app[0].startTime = 65s